ejm_31
     RDKit          3D

 32 33  0  0  1  0  0  0  0  0999 V2000
    0.5812   -1.7936   -6.7582 C   0  0  0  0  0  0  0  0  0  0  0  0
    0.1383   -0.9969   -7.8145 C   0  0  0  0  0  0  0  0  0  0  0  0
   -1.2224   -0.9426   -8.1317 C   0  0  0  0  0  0  0  0  0  0  0  0
   -2.1413   -1.6924   -7.3892 C   0  0  0  0  0  0  0  0  0  0  0  0
   -1.6977   -2.4910   -6.3292 C   0  0  0  0  0  0  0  0  0  0  0  0
   -0.3355   -2.5404   -6.0176 C   0  0  0  0  0  0  0  0  0  0  0  0
   -2.7746   -3.4555   -5.3844 Cl  0  0  0  0  0  0  0  0  0  0  0  0
   -3.5768   -1.6193   -7.7046 C   0  0  0  0  0  0  0  0  0  0  0  0
   -4.2431   -0.7650   -7.1369 O   0  0  0  0  0  0  0  0  0  0  0  0
   -3.9931   -2.5562   -8.6302 N   0  0  0  0  0  0  0  0  0  0  0  0
   -5.3027   -2.7322   -9.1284 C   0  0  0  0  0  0  0  0  0  0  0  0
   -6.3888   -1.9597   -8.7397 C   0  0  0  0  0  0  0  0  0  0  0  0
   -7.6207   -2.2358   -9.3046 C   0  0  0  0  0  0  0  0  0  0  0  0
   -7.8342   -3.2123  -10.2128 N   0  0  0  0  0  0  0  0  0  0  0  0
   -6.7717   -3.9555  -10.5815 C   0  0  0  0  0  0  0  0  0  0  0  0
   -5.4999   -3.7486  -10.0672 C   0  0  0  0  0  0  0  0  0  0  0  0
   -7.0900   -4.9364  -11.5219 N   0  0  0  0  0  0  0  0  0  0  0  0
   -6.2597   -5.8628  -12.1029 C   0  0  0  0  0  0  0  0  0  0  0  0
   -5.0614   -6.0079  -11.8828 O   0  0  0  0  0  0  0  0  0  0  0  0
   -6.9780   -6.7666  -13.0735 C   0  0  2  0  0  0  0  0  0  0  0  0
   -1.6992    0.0492   -9.4629 Cl  0  0  0  0  0  0  0  0  0  0  0  0
   -7.9000   -6.3097  -13.4441 H   0  0  0  0  0  0  0  0  0  0  0  0
    1.6403   -1.8314   -6.5113 H   0  0  0  0  0  0  0  0  0  0  0  0
    0.8600   -0.4170   -8.3866 H   0  0  0  0  0  0  0  0  0  0  0  0
    0.0184   -3.1588   -5.1949 H   0  0  0  0  0  0  0  0  0  0  0  0
   -3.2928   -3.1904   -8.9983 H   0  0  0  0  0  0  0  0  0  0  0  0
   -6.3124   -1.1560   -8.0182 H   0  0  0  0  0  0  0  0  0  0  0  0
   -8.4982   -1.6568   -9.0301 H   0  0  0  0  0  0  0  0  0  0  0  0
   -4.6645   -4.3600  -10.3821 H   0  0  0  0  0  0  0  0  0  0  0  0
   -8.0717   -4.9197  -11.7635 H   0  0  0  0  0  0  0  0  0  0  0  0
   -7.2183   -7.7091  -12.5747 H   0  0  0  0  0  0  0  0  0  0  0  0
   -6.3282   -6.9598  -13.9318 H   0  0  0  0  0  0  0  0  0  0  0  0
  1  2  2  0
  1  6  1  0
  1 23  1  0
  2  3  1  0
  2 24  1  0
  3  4  2  0
  3 21  1  0
  4  5  1  0
  4  8  1  0
  5  6  2  0
  5  7  1  0
  6 25  1  0
  8  9  2  0
  8 10  1  0
 10 11  1  0
 10 26  1  0
 11 12  2  0
 11 16  1  0
 12 13  1  0
 12 27  1  0
 13 14  2  0
 13 28  1  0
 14 15  1  0
 15 16  2  0
 15 17  1  0
 16 29  1  0
 17 18  1  0
 17 30  1  0
 18 19  2  0
 18 20  1  0
 20 22  1  6
 20 31  1  0
 20 32  1  0
M  END

$$$$
