ejm_31
     RDKit          3D

 21 22  0  0  0  0  0  0  0  0999 V2000
  -20.8561   17.9103  -27.2746 C   0  0  0  0  0  0  0  0  0  0  0  0
  -21.3116   17.6387  -28.5613 C   0  0  0  0  0  0  0  0  0  0  0  0
  -22.6696   17.4574  -28.8002 C   0  0  0  0  0  0  0  0  0  0  0  0
  -23.5912   17.5372  -27.7403 C   0  0  0  0  0  0  0  0  0  0  0  0
  -23.1208   17.8246  -26.4441 C   0  0  0  0  0  0  0  0  0  0  0  0
  -21.7606   18.0021  -26.2254 C   0  0  0  0  0  0  0  0  0  0  0  0
  -24.2387   17.9565  -25.1169 Cl  0  0  0  0  0  0  0  0  0  0  0  0
  -25.0441   17.3285  -27.9391 C   0  0  0  0  0  0  0  0  0  0  0  0
  -25.5360   16.2657  -27.5977 O   0  0  0  0  0  0  0  0  0  0  0  0
  -25.7690   18.3415  -28.4520 N   0  0  0  0  0  0  0  0  0  0  0  0
  -27.1482   18.4148  -28.6739 C   0  0  0  0  0  0  0  0  0  0  0  0
  -28.1154   17.5298  -28.1580 C   0  0  0  0  0  0  0  0  0  0  0  0
  -29.4627   17.7973  -28.3812 C   0  0  0  0  0  0  0  0  0  0  0  0
  -29.8431   18.8644  -29.0782 N   0  0  0  0  0  0  0  0  0  0  0  0
  -28.9641   19.7238  -29.5919 C   0  0  0  0  0  0  0  0  0  0  0  0
  -27.5999   19.5403  -29.3549 C   0  0  0  0  0  0  0  0  0  0  0  0
  -29.4307   20.8600  -30.2624 N   0  0  0  0  0  0  0  0  0  0  0  0
  -28.7736   21.5753  -31.2133 C   0  0  0  0  0  0  0  0  0  0  0  0
  -27.6592   21.2823  -31.6141 O   0  0  0  0  0  0  0  0  0  0  0  0
  -29.4878   22.7907  -31.7517 C   0  0  0  0  0  0  0  0  0  0  0  0
  -23.2117   17.1589  -30.4162 Cl  0  0  0  0  0  0  0  0  0  0  0  0
  1  2  2  0
  1  6  1  0
  2  3  1  0
  3  4  2  0
  3 21  1  0
  4  5  1  0
  4  8  1  0
  5  6  2  0
  5  7  1  0
  8  9  2  0
  8 10  1  0
 10 11  1  0
 11 12  2  0
 11 16  1  0
 12 13  1  0
 13 14  2  0
 14 15  1  0
 15 16  2  0
 15 17  1  0
 17 18  1  0
 18 19  2  0
 18 20  1  0
M  END
