18629-1
     RDKit          3D

 23 24  0  0  0  0  0  0  0  0999 V2000
   29.5679  -12.7381  -15.1199 C   0  0  0  0  0  0  0  0  0  0  0  0
   29.3274  -13.5301  -13.8325 C   0  0  0  0  0  0  0  0  0  0  0  0
   28.8042  -12.6305  -12.8581 O   0  0  0  0  0  0  0  0  0  0  0  0
   28.5463  -13.0852  -11.5764 C   0  0  0  0  0  0  0  0  0  0  0  0
   28.8065  -14.3953  -11.3145 N   0  0  0  0  0  0  0  0  0  0  0  0
   28.5350  -14.8652  -10.0887 C   0  0  0  0  0  0  0  0  0  0  0  0
   28.0335  -14.0757   -9.0658 C   0  0  0  0  0  0  0  0  0  0  0  0
   27.7752  -12.7437   -9.3314 C   0  0  0  0  0  0  0  0  0  0  0  0
   27.2602  -12.0138   -8.2678 N   0  0  0  0  0  0  0  0  0  0  0  0
   28.0278  -12.2166  -10.6087 C   0  0  0  0  0  0  0  0  0  0  0  0
   27.7667  -10.8254  -10.9608 C   0  0  0  0  0  0  0  0  0  0  0  0
   27.5630   -9.7225  -11.2488 N   0  0  0  0  0  0  0  0  0  0  0  0
   28.8659  -16.1989   -9.9789 N   0  0  0  0  0  0  0  0  0  0  0  0
   28.4065  -17.1277   -9.1343 C   0  0  0  0  0  0  0  0  0  0  0  0
   27.5136  -16.9119   -8.3169 O   0  0  0  0  0  0  0  0  0  0  0  0
   29.0153  -18.5364   -9.2009 C   0  0  0  0  0  0  0  0  0  0  0  0
   30.2003  -18.6954  -10.1541 C   0  0  0  0  0  0  0  0  0  0  0  0
   30.0277  -18.5702  -11.5389 C   0  0  0  0  0  0  0  0  0  0  0  0
   31.1246  -18.6628  -12.3982 C   0  0  0  0  0  0  0  0  0  0  0  0
   30.9499  -18.4772  -13.8924 C   0  0  0  0  0  0  0  0  0  0  0  0
   32.3923  -18.9225  -11.8745 C   0  0  0  0  0  0  0  0  0  0  0  0
   32.5666  -19.0701  -10.4988 C   0  0  0  0  0  0  0  0  0  0  0  0
   31.4743  -18.9529   -9.6405 C   0  0  0  0  0  0  0  0  0  0  0  0
  1  2  1  0
  2  3  1  0
  3  4  1  0
  4 10  2  0
  4  5  1  0
  5  6  2  0
  6  7  1  0
  6 13  1  0
  7  8  2  0
  8  9  1  0
  8 10  1  0
 10 11  1  0
 11 12  3  0
 13 14  1  0
 14 15  2  0
 14 16  1  0
 16 17  1  0
 17 23  1  0
 17 18  2  0
 18 19  1  0
 19 20  1  0
 19 21  2  0
 21 22  1  0
 22 23  2  0
M  END
